20
ZZZFFY01
O         	2.351265  	-1.125212 	-0.151309 
H         	3.156003  	-0.670079 	0.101621  
O         	-2.441286 	-0.963959 	-0.155679 
H         	-2.436163 	-1.870449 	0.155891  
C         	1.255302  	-0.359946 	0.318841  
H         	1.281782  	-0.306516 	1.419601  
C         	-0.009905 	-1.088400 	-0.099969 
H         	-0.001972 	-2.096530 	0.327781  
H         	-0.011245 	-1.196750 	-1.189499 
C         	-1.265688 	-0.334305 	0.322391  
H         	-1.292708 	-0.280425 	1.423201  
C         	-1.257103 	1.082565  	-0.224759 
H         	-2.151775 	1.606442  	0.119941  
H         	-1.322103 	1.020495  	-1.316569 
C         	0.010364  	1.826910  	0.185771  
H         	0.016771  	2.827470  	-0.252689 
H         	0.016014  	1.968520  	1.273371  
C         	1.263767  	1.061184  	-0.233389 
H         	1.321077  	0.997014  	-1.325649 
H         	2.164065  	1.586127  	0.105561  
