19        
ZZZFFY01
O 2.299442 -1.331166 -0.137313
H 3.114119 -0.861109 0.047288
O -1.333101 -2.108261 -0.216664
H -1.298889 -3.003116 0.125229
C 2.380033 -1.458998 -0.002528
H 2.476484 -1.366526 1.091718
C 1.097977 -2.211653 -0.313408
H 1.027888 -2.358417 -1.396165
C -0.135676 -1.452949 0.162521
H -0.092615 -1.360444 1.260248
C -0.176450 -0.056262 -0.432932
H -1.052413 0.472452 -0.049720
H -0.310679 -0.157352 -1.515471
C 1.107169 0.711998 -0.131007
H 1.075381 1.696472 -0.603461
H 1.181102 0.891964 0.948393
C 2.338771 -0.058233 -0.603188
H 2.326588 -0.160483 -1.693981
H 3.253618 0.485369 -0.341378
