tmp
 OpenBabel12242017373D

 51 56  0  0  1  0  0  0  0  0999 V2000
   -0.0905    5.5166   12.3212 O   0  0  0  0  0  0  0  0  0  0  0  0
    0.2148    3.5148   10.5539 C   0  0  0  0  0  0  0  0  0  0  0  0
    1.2528    4.5034    7.6327 C   0  0  2  0  0  0  0  0  0  0  0  0
    0.4429    5.9274   11.1286 C   0  0  0  0  0  0  0  0  0  0  0  0
    1.7540    3.2686    7.3766 C   0  0  0  0  0  0  0  0  0  0  0  0
   -0.8252    2.9396    9.8619 C   0  0  0  0  0  0  0  0  0  0  0  0
    1.7183    2.5437    6.0696 C   0  0  1  0  0  0  0  0  0  0  0  0
    3.0507    2.6072    9.5438 C   0  0  0  0  0  0  0  0  0  0  0  0
    2.9013    3.4342    9.9869 H   0  0  0  0  0  0  0  0  0  0  0  0
    1.0732    7.6244    9.5385 C   0  0  0  0  0  0  0  0  0  0  0  0
    1.2275    8.5364    9.3209 H   0  0  0  0  0  0  0  0  0  0  0  0
    0.6509    4.8945   10.1848 C   0  0  0  0  0  0  0  0  0  0  0  0
    0.7880    2.8150   11.6680 C   0  0  0  0  0  0  0  0  0  0  0  0
    3.5773    0.1811    8.2153 C   0  0  0  0  0  0  0  0  0  0  0  0
    0.7031    7.2626   10.8309 C   0  0  0  0  0  0  0  0  0  0  0  0
    0.6286    7.9245   11.5072 H   0  0  0  0  0  0  0  0  0  0  0  0
    2.8346    1.1819    7.6040 C   0  0  0  0  0  0  0  0  0  0  0  0
    0.8725    5.4878    6.5329 C   0  0  1  0  0  0  0  0  0  0  0  0
    1.3338    5.2571    5.6753 H   0  0  0  0  0  0  0  0  0  0  0  0
    1.0804    5.2753    8.8983 C   0  0  0  0  0  0  0  0  0  0  0  0
    1.2127    6.6449    8.5780 C   0  0  0  0  0  0  0  0  0  0  0  0
    2.5109    2.3759    8.2838 C   0  0  0  0  0  0  0  0  0  0  0  0
    4.0543    0.3990    9.5019 C   0  0  0  0  0  0  0  0  0  0  0  0
    1.8496    3.3486   12.4438 C   0  0  0  0  0  0  0  0  0  0  0  0
    2.1861    4.2127   12.2395 H   0  0  0  0  0  0  0  0  0  0  0  0
    1.2485    1.9192    3.7870 C   0  0  0  0  0  0  0  0  0  0  0  0
    0.8622    2.1258    2.9451 H   0  0  0  0  0  0  0  0  0  0  0  0
    2.3548    1.2902    6.2299 C   0  0  0  0  0  0  0  0  0  0  0  0
    0.2861    1.5272   12.0084 C   0  0  0  0  0  0  0  0  0  0  0  0
   -0.6476    5.5052    6.3445 C   0  0  0  0  0  1  0  0  0  0  0  0
    1.4014    6.8266    7.0972 C   0  0  0  0  0  0  0  0  0  0  0  0
    2.3554    6.9610    6.8693 H   0  0  0  0  0  0  0  0  0  0  0  0
    0.8740    7.5933    6.7579 H   0  0  0  0  0  0  0  0  0  0  0  0
    1.1295    2.8321    4.8348 C   0  0  0  0  0  0  0  0  0  0  0  0
    0.6522    3.6437    4.7095 H   0  0  0  0  0  0  0  0  0  0  0  0
    1.9218    0.7111    3.9510 C   0  0  0  0  0  0  0  0  0  0  0  0
    2.0076    0.1130    3.2184 H   0  0  0  0  0  0  0  0  0  0  0  0
    3.8137    1.6101   10.1487 C   0  0  0  0  0  0  0  0  0  0  0  0
    4.1751    1.7585   11.0137 H   0  0  0  0  0  0  0  0  0  0  0  0
    2.4674    0.3804    5.1847 C   0  0  0  0  0  0  0  0  0  0  0  0
    0.8829    0.8211   13.0952 C   0  0  0  0  0  0  0  0  0  0  0  0
    1.9174    1.3550   13.8002 C   0  0  0  0  0  0  0  0  0  0  0  0
    2.3150    0.8603   14.5081 H   0  0  0  0  0  0  0  0  0  0  0  0
   -0.7959    0.9854   11.2759 C   0  0  0  0  0  0  0  0  0  0  0  0
   -1.1452    0.1335   11.5099 H   0  0  0  0  0  0  0  0  0  0  0  0
   -0.4216    6.5116   13.2838 C   0  0  0  0  0  0  0  0  0  0  0  0
   -1.0388    7.1598   12.8843 H   0  0  0  0  0  0  0  0  0  0  0  0
    0.3939    6.9717   13.5715 H   0  0  0  0  0  0  0  0  0  0  0  0
   -0.8480    6.0881   14.0570 H   0  0  0  0  0  0  0  0  0  0  0  0
    2.3993    2.6430   13.4812 C   0  0  0  0  0  0  0  0  0  0  0  0
    3.1079    3.0221   13.9880 H   0  0  0  0  0  0  0  0  0  0  0  0
  1 46  1  0  0  0  0
  2 13  1  0  0  0  0
  3 18  1  6  0  0  0
  3 20  1  0  0  0  0
  4  1  1  0  0  0  0
  5  3  1  0  0  0  0
  5 22  2  0  0  0  0
  6  2  2  0  0  0  0
  7 34  1  1  0  0  0
  7 28  1  0  0  0  0
  7  5  1  0  0  0  0
  8  9  1  0  0  0  0
  8 38  2  0  0  0  0
 10 15  2  0  0  0  0
 11 10  1  0  0  0  0
 12  2  1  0  0  0  0
 12  4  2  0  0  0  0
 13 29  2  0  0  0  0
 13 24  1  0  0  0  0
 14 23  2  0  0  0  0
 15  4  1  0  0  0  0
 15 16  1  0  0  0  0
 17 14  1  0  0  0  0
 17 22  1  0  0  0  0
 18 19  1  6  0  0  0
 18 31  1  0  0  0  0
 20 12  1  0  0  0  0
 21 20  2  0  0  0  0
 21 10  1  0  0  0  0
 22  8  1  0  0  0  0
 23 38  1  0  0  0  0
 24 50  2  0  0  0  0
 25 24  1  0  0  0  0
 26 36  1  0  0  0  0
 26 34  2  0  0  0  0
 27 26  1  0  0  0  0
 28 17  2  0  0  0  0
 29 41  1  0  0  0  0
 30 18  1  0  0  0  0
 31 21  1  0  0  0  0
 32 31  1  0  0  0  0
 33 31  1  0  0  0  0
 35 34  1  0  0  0  0
 36 40  2  0  0  0  0
 37 36  1  0  0  0  0
 38 39  1  0  0  0  0
 40 28  1  0  0  0  0
 41 42  2  0  0  0  0
 42 43  1  0  0  0  0
 44 45  1  0  0  0  0
 44 29  1  0  0  0  0
 46 48  1  0  0  0  0
 46 49  1  0  0  0  0
 47 46  1  0  0  0  0
 50 42  1  0  0  0  0
 50 51  1  0  0  0  0
M  RAD  8   3   2   6   3   7   2  14   2  23   2  40   2  41   2  44   3
M  END
$$$$
